Version 4
SHEET 1 2612 828
WIRE -800 -416 -800 -464
WIRE -800 -304 -800 -336
WIRE -688 -304 -800 -304
WIRE -800 -272 -800 -304
WIRE 432 -192 48 -192
WIRE 704 -192 432 -192
WIRE 912 -192 704 -192
WIRE 1216 -192 912 -192
WIRE 1488 -192 1216 -192
WIRE 2000 -192 1488 -192
WIRE -800 -144 -800 -192
WIRE 704 -144 704 -192
WIRE 1216 -144 1216 -192
WIRE 48 -112 48 -192
WIRE 432 -112 432 -192
WIRE 1488 -112 1488 -192
WIRE 640 -96 560 -96
WIRE 1312 -96 1280 -96
WIRE 2000 -96 2000 -192
WIRE 912 -64 912 -192
WIRE 560 -16 560 -96
WIRE 1312 -16 1312 -96
WIRE 1360 -16 1312 -16
WIRE 192 0 192 -32
WIRE 1824 0 1824 -32
WIRE -448 16 -544 16
WIRE -336 16 -448 16
WIRE -192 16 -336 16
WIRE 128 16 -192 16
WIRE 160 16 128 16
WIRE 1936 16 1856 16
WIRE 2096 16 1936 16
WIRE 2240 16 2096 16
WIRE 2400 16 2240 16
WIRE 2592 16 2400 16
WIRE 320 32 224 32
WIRE 432 32 432 -32
WIRE 432 32 400 32
WIRE 496 32 432 32
WIRE 1488 32 1488 -32
WIRE 1488 32 1424 32
WIRE 1536 32 1488 32
WIRE 1792 32 1616 32
WIRE 48 48 48 -32
WIRE 160 48 48 48
WIRE 2000 48 2000 -16
WIRE 2000 48 1856 48
WIRE 2096 48 2096 16
WIRE 2240 48 2240 16
WIRE -544 64 -544 16
WIRE -448 64 -448 16
WIRE -336 64 -336 16
WIRE -192 64 -192 16
WIRE 48 64 48 48
WIRE 2000 64 2000 48
WIRE 2400 64 2400 16
WIRE 2592 64 2592 16
WIRE 192 96 192 64
WIRE 1824 96 1824 64
WIRE 560 128 560 80
WIRE 704 128 704 -48
WIRE 704 128 560 128
WIRE 736 128 704 128
WIRE 912 128 912 16
WIRE 912 128 880 128
WIRE 976 128 912 128
WIRE 1040 128 976 128
WIRE 1216 128 1216 -48
WIRE 1216 128 1168 128
WIRE 1360 128 1360 80
WIRE 1360 128 1216 128
WIRE 976 144 976 128
WIRE 2000 160 2000 144
WIRE 2096 160 2096 112
WIRE 2096 160 2000 160
WIRE 2240 160 2240 128
WIRE 2240 160 2096 160
WIRE 2400 160 2400 128
WIRE 2400 160 2240 160
WIRE 2592 160 2592 128
WIRE 2592 160 2400 160
WIRE -544 176 -544 128
WIRE -448 176 -448 128
WIRE -448 176 -544 176
WIRE -336 176 -336 144
WIRE -336 176 -448 176
WIRE -192 176 -192 128
WIRE -192 176 -336 176
WIRE 48 176 48 144
WIRE 48 176 -192 176
WIRE 560 192 560 128
WIRE 912 192 912 128
WIRE 912 192 864 192
WIRE 1360 192 1360 128
WIRE 192 208 192 176
WIRE 1824 208 1824 176
WIRE 128 224 128 16
WIRE 160 224 128 224
WIRE 1936 224 1936 16
WIRE 1936 224 1856 224
WIRE 432 240 224 240
WIRE 496 240 432 240
WIRE 1488 240 1424 240
WIRE 1792 240 1488 240
WIRE 48 256 48 176
WIRE 160 256 48 256
WIRE 912 256 912 192
WIRE 2000 256 2000 160
WIRE 2000 256 1856 256
WIRE 432 272 432 240
WIRE 1488 272 1488 240
WIRE 192 304 192 272
WIRE 1824 304 1824 272
WIRE 48 320 48 256
WIRE 704 320 704 128
WIRE 1216 336 1216 128
WIRE 2000 336 2000 256
WIRE 560 368 560 288
WIRE 640 368 560 368
WIRE 432 384 432 352
WIRE 1360 384 1360 288
WIRE 1360 384 1280 384
WIRE 1488 384 1488 352
WIRE 48 464 48 400
WIRE 704 464 704 416
WIRE 704 464 48 464
WIRE 912 464 912 336
WIRE 912 464 704 464
WIRE 1216 464 1216 432
WIRE 1216 464 912 464
WIRE 2000 464 2000 416
WIRE 2000 464 1216 464
FLAG -800 -464 V+
FLAG -800 -144 V-
FLAG -688 -304 0
FLAG 192 96 V-
FLAG 192 304 V-
FLAG 192 -32 V+
FLAG 192 176 V+
FLAG 432 384 0
FLAG 976 144 0
FLAG 736 128 P1
IOPIN 736 128 Out
FLAG 880 128 P2
IOPIN 880 128 Out
FLAG 1040 128 P3
IOPIN 1040 128 Out
FLAG 1168 128 P4
IOPIN 1168 128 Out
FLAG 1488 384 0
FLAG 1824 -32 V+
FLAG 1824 176 V+
FLAG 1824 96 V-
FLAG 1824 304 V-
FLAG 864 192 prob
SYMBOL res -352 48 R0
SYMATTR InstName R1
SYMATTR Value 1000k
SYMBOL cap -208 64 R0
SYMATTR InstName C1
SYMATTR Value 10n
SYMBOL Opamps\\opamp2 192 -32 R0
SYMATTR InstName U1
SYMATTR Value LM741
SYMBOL Opamps\\opamp2 192 176 R0
SYMATTR InstName U2
SYMATTR Value LM741
SYMBOL res 416 16 R90
WINDOW 0 0 56 VBottom 2
WINDOW 3 32 56 VTop 2
SYMATTR InstName R6
SYMATTR Value 4.7k
SYMBOL res 448 -16 R180
WINDOW 0 36 76 Left 2
WINDOW 3 36 40 Left 2
SYMATTR InstName R5
SYMATTR Value 10k
SYMBOL res 64 -16 R180
WINDOW 0 36 76 Left 2
WINDOW 3 36 40 Left 2
SYMATTR InstName R3
SYMATTR Value 10k
SYMBOL voltage -800 -432 R0
SYMATTR InstName V+
SYMATTR Value 12
SYMBOL voltage -800 -288 R0
SYMATTR InstName V-
SYMATTR Value 12
SYMBOL pnp 496 80 M180
SYMATTR InstName Q3
SYMATTR Value 2N4126
SYMBOL res 416 256 R0
SYMATTR InstName R7
SYMATTR Value 2.7k
SYMBOL npn 496 192 R0
SYMATTR InstName Q4
SYMATTR Value 2N3391A
SYMBOL pnp 640 -48 M180
SYMATTR InstName Q1
SYMATTR Value 2N4126
SYMBOL npn 640 320 R0
SYMATTR InstName Q2
SYMATTR Value 2N3391A
SYMBOL voltage 912 -80 R0
WINDOW 3 24 44 Left 2
WINDOW 123 24 44 Left 2
WINDOW 39 0 0 Left 2
SYMATTR Value 13.5
SYMATTR InstName BAT1
SYMBOL voltage 912 240 R0
WINDOW 3 24 72 Left 2
WINDOW 123 24 44 Left 2
WINDOW 39 0 0 Left 2
SYMATTR Value 9
SYMATTR InstName BAT2
SYMBOL res 64 416 R180
WINDOW 0 36 76 Left 2
WINDOW 3 36 40 Left 2
SYMATTR InstName R4
SYMATTR Value 10k
SYMBOL LED -464 64 R0
SYMATTR InstName D1
SYMBOL LED -528 128 R180
WINDOW 0 24 64 Left 2
WINDOW 3 24 0 Left 2
SYMATTR InstName D2
SYMBOL res 32 48 R0
SYMATTR InstName R2
SYMATTR Value 1k
SYMBOL pnp 1280 -48 R180
SYMATTR InstName Q5
SYMATTR Value 2N4126
SYMBOL pnp 1424 80 R180
SYMATTR InstName Q7
SYMATTR Value 2N4126
SYMBOL npn 1424 192 M0
SYMATTR InstName Q8
SYMATTR Value 2N3391A
SYMBOL npn 1280 336 M0
SYMATTR InstName Q6
SYMATTR Value 2N3391A
SYMBOL res 1504 -16 R180
WINDOW 0 36 76 Left 2
WINDOW 3 36 40 Left 2
SYMATTR InstName R8
SYMATTR Value 10k
SYMBOL res 1472 256 R0
SYMATTR InstName R9
SYMATTR Value 2.7k
SYMBOL res 1632 16 R90
WINDOW 0 0 56 VBottom 2
WINDOW 3 32 56 VTop 2
SYMATTR InstName R10
SYMATTR Value 4.7k
SYMBOL Opamps\\opamp2 1824 176 M0
SYMATTR InstName U3
SYMATTR Value LM741
SYMBOL Opamps\\opamp2 1824 -32 M0
SYMATTR InstName U4
SYMATTR Value LM741
SYMBOL cap 2080 48 R0
SYMATTR InstName C2
SYMATTR Value 10n
SYMBOL res 2224 32 R0
SYMATTR InstName R11
SYMATTR Value 1000k
SYMBOL LED 2384 64 R0
SYMATTR InstName D3
SYMBOL LED 2608 128 R180
WINDOW 0 24 64 Left 2
WINDOW 3 24 0 Left 2
SYMATTR InstName D4
SYMBOL res 1984 48 R0
SYMATTR InstName R12
SYMATTR Value 1k
SYMBOL res 2016 0 R180
WINDOW 0 36 76 Left 2
WINDOW 3 36 40 Left 2
SYMATTR InstName R13
SYMATTR Value 10k
SYMBOL res 2016 432 R180
WINDOW 0 36 76 Left 2
WINDOW 3 36 40 Left 2
SYMATTR InstName R14
SYMATTR Value 10k
TEXT -592 720 Left 2 ;LIBRARY
TEXT -600 776 Left 2 !.lib LM741.lib
TEXT -600 808 Left 2 !;ac dec 20 1 100
TEXT -160 264 Left 2 !.op
